[General]
network = Rete
debugger-attach-on-error = true
repeat = 20
sim-time-limit = 1000s
debug-on-errors = true
warnings = false
record-eventlog = true
**.result-recording-modes = all, histogram


Rete.lambda = ${2.0,1.4,1.2,1.0}
Rete.a = 0.3s
Rete.b = ${1.7,3.5}s
Rete.c = 0.1s
Rete.d = 0.3s
Rete.mu = 3.0

Rete.source2.interArrivalTime = exponential(1s/lambda) # 1/lamda
Rete.source2.jobServiceTime = exponential(1s/mu) # S
Rete.source2.deadline = uniform(a,b) # H

Rete.server2.j = ${30,50,70} #Job to be served befor vacation time
Rete.server2.V = uniform(c,d) # V